!  Station Extraction Parameters.
!
!svn $Id$
!========================================================= Hernan G. Arango ===
!  Copyright (c) 2002-2016 The ROMS/TOMS Group                                !
!    Licensed under a MIT/X style license                                     !
!    See License_ROMS.txt                                                     !
!==============================================================================
!                                                                             !
! Input parameters can be entered in ANY order, provided that the parameter   !
! KEYWORD (usually, upper case) is typed correctly followed by "="  or "=="   !
! symbols. Any comment lines are allowed and must begin with an exclamation   !
! mark (!) in column one.  Comments may  appear to the right of a parameter   !
! specification to improve documentation.  Comments will be ignored  during   !
! reading.  Blank lines are also allowed and ignored. Continuation lines in   !
! a parameter specification are allowed and must be preceded by a backslash   !
! (\).  In some instances, more than one value is required for a parameter.   !
! If fewer values are provided, the  last value  is assigned for the entire   !
! parameter array.  The multiplication symbol (*),  without blank spaces in   !
! between, is allowed for a parameter specification.  For example, in a two   !
! grids nested application:                                                   !
!                                                                             !
!    AKT_BAK == 2*1.0d-6  2*5.0d-6              ! m2/s                        !
!                                                                             !
! indicates that the first two entries of array AKT_BAK,  in fortran column-  !
! major order, will have the same value of "1.0d-6" for grid 1,  whereas the  !
! next two entries will have the same value of "5.0d-6" for grid 2.           !
!                                                                             !
! In multiple levels of nesting and/or multiple connected domains  step-ups,  !
! "Ngrids" entries are expected for some of these parameters.  In such case,  !
! the order of the entries for a parameter is extremely important.  It  must  !
! follow the same order (1:Ngrids) as in the state variable declaration. The  !
! USER may follow the above guidelines for specifying his/her values.  These  !
! parameters are marked by "==" plural symbol after the KEYWORD.              !
!                                                                             !
!==============================================================================
!
! Switch to control the writing of stations data within nested and/or multiple
! connected grids, [1:Ngrids].

   Lstations == T

! Logical switches (TRUE/FALSE) to activate writing of fields in STATION
! output file, [Sout(:,ng), ng=1, Ngrids].

Sout(idUvel) == T       ! u                  3D U-velocity
Sout(idVvel) == T       ! v                  3D V-velocity
Sout(idu3dE) == T       ! u_eastward         3D U-eastward at RHO-points
Sout(idv3dN) == T       ! v_northward        3D V-nortward at RHO-points
Sout(idWvel) == T       ! w                  3D W-velocity
Sout(idOvel) == F       ! omega              3D omega vertical velocity
Sout(idUbar) == T       ! ubar               2D U-velocity
Sout(idVbar) == T       ! vbar               2D V-velocity
Sout(idu2dE) == F       ! ubar_eastward      2D U-eastward  at RHO-points
Sout(idv2dN) == F       ! vbar_northward     2D V-northward at RHO-points
Sout(idFsur) == T       ! zeta               free-surface
!Sout(idBath) == F       ! bath               time-dependent bathymetry !Must add to varinfo.dat

Sout(idTvar) == T T     ! temp, salt, ...    all (NT) tracers

Sout(idUsms) == T       ! sustr              surface U-stress
Sout(idVsms) == T       ! svstr              surface V-stress
Sout(idUbms) == T       ! bustr              bottom U-stress
Sout(idVbms) == T       ! bvstr              bottom V-stress

Sout(idUbrs) == F       ! bustrc             bottom U-current stress
Sout(idVbrs) == F       ! bvstrc             bottom V-current stress
Sout(idUbws) == F       ! bustrw             bottom U-wave stress
Sout(idVbws) == F       ! bvstrw             bottom V-wave stress
Sout(idUbcs) == F       ! bustrcwmax         bottom max wave-current U-stress
Sout(idVbcs) == F       ! bvstrcwmax         bottom max wave-current V-stress

Sout(idUbot) == F       ! Ubot               bed wave orbital U-velocity
Sout(idVbot) == F       ! Vbot               bed wave orbital V-velocity
Sout(idUbur) == F       ! Ur                 bottom U-velocity above bed
Sout(idVbvr) == F       ! Vr                 bottom V-velocity above bed

Sout(idW2xx) == F       ! Sxx_bar            2D radiation stress, Sxx component
Sout(idW2xy) == F       ! Sxy_bar            2D radiation stress, Sxy component
Sout(idW2yy) == F       ! Syy_bar            2D radiation stress, Syy component
Sout(idU2rs) == F       ! Ubar_Rstress       2D radiation U-stress
Sout(idV2rs) == F       ! Vbar_Rstress       2D radiation V-stress
Sout(idU2Sd) == F       ! ubar_stokes        2D U-Stokes velocity
Sout(idV2Sd) == F       ! vbar_stokes        2D V-Stokes velocity

Sout(idW3xx) == F       ! Sxx                3D radiation stress, Sxx component
Sout(idW3xy) == F       ! Sxy                3D radiation stress, Sxy component
Sout(idW3yy) == F       ! Syy                3D radiation stress, Syy component
Sout(idW3zx) == F       ! Szx                3D radiation stress, Szx component
Sout(idW3zy) == F       ! Szy                3D radiation stress, Szy component
Sout(idU3rs) == F       ! u_Rstress          3D U-radiation stress
Sout(idV3rs) == F       ! v_Rstress          3D V-radiation stress
Sout(idU3Sd) == F       ! u_stokes           3D U-Stokes velocity
Sout(idV3Sd) == F       ! v_stokes           3D V-Stokes velocity

Sout(idWamp) == F       ! Hwave              wave height
Sout(idWlen) == F       ! Lwave              wave length
Sout(idWdir) == F       ! Dwave              wave direction
Sout(idWptp) == F       ! Pwave_top          wave surface period
Sout(idWpbt) == F       ! Pwave_bot          wave bottom period
Sout(idWorb) == F       ! Ub_swan            wave bottom orbital velocity
Sout(idWdis) == F       ! Wave_dissip        wave dissipation

Sout(idPair) == F       ! Pair               surface air pressure
Sout(idUair) == F       ! Uair               surface U-wind component
Sout(idVair) == F       ! Vair               surface V-wind component

!Sout(idSradWm2) == F    ! srflxWm2           shortwave radiation flux [W/m2]
!Sout(idxCO2atm) == F    ! xCO2atm            surface dry air molar fraction CO2 [ppm]
!Sout(idpCO2atm) == F    ! pCO2atm            surface partial pressure CO2 [uatm]

Sout(idTsur) == F F     ! shflux, ssflux     surface net heat and salt flux
Sout(idLhea) == F       ! latent             latent heat flux
Sout(idShea) == F       ! sensible           sensible heat flux
Sout(idLrad) == F       ! lwrad              longwave radiation flux
Sout(idSrad) == F       ! swrad              shortwave radiation flux
Sout(idEmPf) == F       ! EminusP            E-P flux
Sout(idevap) == F       ! evaporation        evaporation rate
Sout(idrain) == F       ! rain               precipitation rate

Sout(idDano) == T       ! rho                density anomaly
Sout(idVvis) == T       ! AKv                vertical viscosity
Sout(idTdif) == T       ! AKt                vertical T-diffusion
Sout(idSdif) == T       ! AKs                vertical Salinity diffusion
Sout(idHsbl) == F       ! Hsbl               depth of surface boundary layer
Sout(idHbbl) == F       ! Hbbl               depth of bottom boundary layer
Sout(idMtke) == F       ! tke                turbulent kinetic energy
Sout(idMtls) == F       ! gls                turbulent length scale

! Logical switches (TRUE/FALSE) to activate writing of ice prognostic
! variables into HISTORY output file.
Sout(idUice) == T
Sout(idVice) == T
Sout(idAice) == T
Sout(idHice) == T
Sout(idTice) == T
Sout(idHsno) == T
Sout(idTimid) == T
Sout(idT2ice) == T
Sout(idApond) == T
Sout(idHpond) == T
Sout(idTauiw) == F
Sout(idChuiw) == F
Sout(idAgeice) == F
Sout(idSig11) == F
Sout(idSig12) == F
Sout(idSig22) == F
Sout(idS0mk) == F
Sout(idT0mk) == F
Sout(idWfr) == F
Sout(idWai) == F
Sout(idWao) == F
Sout(idWio) == F
Sout(idWro) == F
Sout(idWdiv) == F

Sout(idAlbe) == T
Sout(idAlbI) == T
Sout(idLWdn) == T
Sout(idSWdn) == T
Sout(idLatI) == T
Sout(idSenI) == T
Sout(idLWupI) == T
Sout(idSWupI) == T
Sout(idSWinI) == T
Sout(idSWthruI) == T
Sout(idSaltI) == T
Sout(idSaltL) == T
Sout(idQao) == T
Sout(idQai) == T
Sout(idQio) == T
Sout(idQi2) == T
Sout(idSnoI) == T

! Logical switches (TRUE/FALSE) to activate writing of exposed sediment
! layer properties into STATIONS output file.  Currently, MBOTP properties
! are expected for the bottom boundary layer and/or sediment models:
!
! idBott( 1=isd50)   grain_diameter          mean grain diameter
! idBott( 2=idens)   grain_density           mean grain density
! idBott( 3=iwsed)   settling_vel            mean settling velocity
! idBott( 4=itauc)   erosion_stress          critical erosion stress
! idBott( 5=irlen)   ripple_length           ripple length
! idBott( 6=irhgt)   ripple_height           ripple height
! idBott( 7=ibwav)   bed_wave_amp            wave excursion amplitude
! idBott( 8=izdef)   Zo_def                  default bottom roughness
! idBott( 9=izapp)   Zo_app                  apparent bottom roughness
! idBott(10=izNik)   Zo_Nik                  Nikuradse bottom roughness
! idBott(11=izbio)   Zo_bio                  biological bottom roughness
! idBott(12=izbfm)   Zo_bedform              bed form bottom roughness
! idBott(13=izbld)   Zo_bedload              bed load bottom roughness
! idBott(14=izwbl)   Zo_wbl                  wave bottom roughness
! idBott(15=iactv)   active_layer_thickness  active layer thickness
! idBott(16=ishgt)   saltation               saltation height
!
!                                 1 1 1 1 1 1 1
!               1 2 3 4 5 6 7 8 9 0 1 2 3 4 5 6

!Sout(idBott) == F F F F F F F F F F F F F F F F


! Number of stations to process in each nested grid.  These values are
! essential because the station arrays are dynamically allocated using
! these values, [1:Ngrids].

    NSTATION ==  32

! Station locations for all grids in any desired order.  The horizontal
! location for a particular station may be specified in terms of fractional
! (I,J) grid pairs (FLAG=0) or (longitude,latitude) grid pairs (FLAG=1).
! Here, FLAG is a special switch and may be used for multiple purposes.
! The GRID column indicates nested grid number to process. This value must
! be one in non-nested applications.  The COMMENT section is ignored during
! reading and may be used to help documentation.

POS =  GRID  FLAG      X-POS       Y-POS     COMMENT

          1     0      74.0d0      120.0d0   !1. Irminger Sea station (IRM), (64.330N,-28.000E), 1217m
          1     0      101.0d0     91.0d0    !2. Iceland Sea station (IS), (68.000N,-12.670E), 1834m 
          1     0      105.0d0     58.0d0    !3. OWSM Norwegian Sea, (66.000N,2.000E), 2062m
          1     0      155.0d0     62.0d0    !4. CTGB station 1, Barents Sea Opening, (73.464N,18.874E), 418m
          1     0      166.0d0     34.0d0    !5. KOLA stations 1-3, (70.000N,33.500E), 191m
          1     0      169.0d0     41.0d0    !6. KOLA stations 3-7, (71.500N,33.500E), 269m
          1     0      174.0d0     51.0d0    !7. KOLA stations 8-10, (73.500N,33.500E), 282m
          1     0      82.0d0      19.0d0    !8. ARENDAL station, (58.383N,8.817E), 253m
          1     0      86.0d0      19.0d0    !9. JOMFRULAND station, (58.850N,9.667E), 183m
          1     0      182.0d0     73.0d0    !10. Barents Sea (BS), (78.000N,32.000E), 189m
          1     0      163.0d0     91.0d0    !11. Fram Strait (FrS), (78.500N,7.000E), 2280m
          1     0      153.0d0     57.0d0    !12. Barents Sea Opening (BSO), (72.500N,20.000E), 361m
          1     0      142.0d0     90.0d0    !13. Greenland Sea (GrS), (75.000N,-2.000E), 3632m
          1     0      125.0d0     67.0d0    !14. Lofoten Basin (LoB), (70.000N, 4.000E), 3227m
          1     0      94.0d0      62.0d0    !15. Norwegian Basin (NoB), (64.700N,-2.000E), 2947m
          1     0      74.0d0      69.0d0    !16. Iceland-Scotland ridge, (62.000N,-8.000E), 156m
          1     0      50.0d0      124.0d0   !17. Signorini et al. (2012), (60.000N,-30.000E), 1404m
          1     0      189.0d0     65.0d0    !18. Central Barents Sea, (77.000N,40.000E), 197m
          1     0      232.0d0     51.0d0    !19. Kara Sea hotspot, (74.500N,74.000E), 24m 
          1     0      129.0d0     46.0d0    !20. Lofoten-AC station 1, (68.083N,13.614E), 157m
          1     0      301.0d0     214.0d0   !21. Bering Strait A3, (66.327N,-168.960E), 51m
          1     0      276.0d0     189.0d0   !22. Chukchi shelf, (73.000N,-170.000E), 81m
          1     0      78.0d0      30.0d0    !23. West of Stavanger, (58.941N,4.989E), 173m
          1     0      237.0d0     174.0d0   !24. ANS station 1, (79.890N,-153.39E), 3845m
          1     0      224.0d0     137.0d0   !25. ANS station 2, (86.830N,176.750E), 3915m
          1     0      215.0d0     119.0d0   !26. ANS station 3, (87.790N,86.130E), 4336m
          1     0      169.0d0     106.0d0   !27. ANS station 4, (81.010N,-2.360E), 3436m
          1     0      135.0d0     181.0d0   !28. ANS station 5, (72.620N,-66.830E), 2342m
          1     0      91.0d0      116.0d0   !29. ANS station 6, (67.300N,-25.700E), 952m
          1     0      98.0d0      222.0d0   !30. ANS station 7, (62.550N,-71.780E), 301m
          1     0      276.0d0     102.0d0   !33. Laptev 
          1     0      121.0d0     51.0d0    !31. CTGB station 2, Rost reef, (67.500N,9.250E), 731m
!          1     0      81.0d0      35.0d0    !32. CTGB station 3, Bergen offshore, (60.000N,4.000E), 280m
!          1     0      276.0d0     102.0d0   !33. Laptev sea, (76.274N, 125.380E)
!
!  GLOSSARY:
!  =========
!
!  This input file provides the positions of stations data to be extracted
!  and written into STATIONS output file.  This file is use to monitor model
!  fields at frequent time intervals.  It is also used to sample the model at
!  observation locations in order to build the penalty function used in
!  variational data assimilation.
!
!------------------------------------------------------------------------------
! Control Switch.
!------------------------------------------------------------------------------
!
! Lstations      Switch to control the writing of station data within nested
!                  and/or multiple connected grids. Ngrid values are expected.
!                  By default this switch is set to TRUE in "mod_scalars" for
!                  all grids when the CPP option STATIONS is activated.  The
!                  USER can control which grid to process by turning on/off
!                  this switch.
!
!------------------------------------------------------------------------------
! Logical switches (TRUE/FALSE) to activate writing of fields in STATIONS
! output file.  Except for tracer type variables, Ngrids values are expected
! for all switches.
!------------------------------------------------------------------------------
!
!  Sout(idUvel)  Write out 3D U-velocity component.
!  Sout(idVvel)  Write out 3D V-velocity component.
!  Sout(idu3dE)  Write out 3D Eastward  velocity component at RHO-points.
!  Sout(idv3dN)  Write out 3D Northward velocity component at RHO-points.
!  Sout(idWvel)  Write out 3D W-velocity component.
!  Sout(idOvel)  Write out 3D omega vertical velocity.
!  Sout(idUbar)  Write out 2D U-velocity component.
!  Sout(idVbar)  Write out 2D V-velocity component.
!  Sout(idu2dE)  Write out 2D Eastward  velocity component at RHO-points.
!  Sout(idv2dN)  Write out 2D Northward velocity component at RHO-points.
!  Sout(idFsur)  Write out free-surface.
!  Sout(idBath)  Write out time-dependent bathymetry.
!
!  Sout(idTvar)  Write out tracer type variables,  (NT,Ngrids) values are
!                  Expected.
!
!  Sout(idUsms)  Write out surface U-momentum stress.
!  Sout(idVsms)  Write out surface V-momentum stress.
!  Sout(idUbms)  Write out bottom  U-momentum stress.
!  Sout(idVbms)  Write out bottom  V-momentum stress.
!
!  Sout(idUbrs)  Write out current-induced, U-momentum stress.
!  Sout(idVbrs)  Write out current-induced, V-momentum stress.
!  Sout(idUbws)  Write out wind-induced, bottom U-wave stress.
!  Sout(idVbws)  Write out wind-induced, bottom V-wave stress.
!  Sout(idUbcs)  Write out bottom maximum wave and current U-stress.
!  Sout(idVbcs)  Write out bottom maximum wave and current V-stress.
!
!  Sout(idUbot)  Write out wind-induced, bed wave orbital U-velocity.
!  Sout(idVbot)  Write out wind-induced, bed wave orbital V-velocity.
!  Sout(idUbur)  Write out bottom U-velocity above bed.
!  Sout(idVbvr)  Write out bottom V-velocity above bed.
!
!  Sout(idW2xx)  Write out 2D radiation stress, Sxx component.
!  Sout(idW2xy)  Write out 2D radiation stress, Sxy component.
!  Sout(idW2yy)  Write out 2D radiation stress, Syy component.
!  Sout(idU2rs)  Write out 2D U-radiation stress.
!  Sout(idV2rs)  Write out 2D V-radiation stress.
!  Sout(idU2Sd)  Write out 2D U-Stokes velocity.
!  Sout(idV2Sd)  Write out 2D V-Stokes velocity.
!
!  Sout(idW3xx)  Write out 3D radiation stress, Sxx component.
!  Sout(idW3xy)  Write out 3D radiation stress, Sxy component.
!  Sout(idW3yy)  Write out 3D radiation stress, Syy component.
!  Sout(idW3zx)  Write out 3D radiation stress, Szx component.
!  Sout(idW3zy)  Write out 3D radiation stress, Szy component.
!  Sout(idU3rs)  Write out 3D U-radiation stress.
!  Sout(idV3rs)  Write out 3D V-radiation stress.
!  Sout(idU3Sd)  Write out 3D U-Stokes velocity.
!  Sout(idV3Sd)  Write out 3D V-Stokes velocity.
!
!  Sout(idWamp)  Write out wave height.
!  Sout(idWlen)  Write out wave length.
!  Sout(idWdir)  Write out wave direction.
!  Sout(idWptp)  Write out wave surface period.
!  Sout(idWpbt)  Write out wave bottom period.
!  Sout(idWorb)  Write out wave bottom orbital velocity.
!  Sout(idWdis)  Write out wave dissipation.
!
!  Sout(idPair)  Write out surface air pressure.
!  Sout(idUair)  Write out surface U-wind component.
!  Sout(idVair)  Write out surface V-wind component.
!
!  Sout(idTsur)  Write out surface net heat and salt flux.
!  Sout(idLhea)  Write out latent heat flux.
!  Sout(idShea)  Write out sensible heat flux.
!  Sout(idLrad)  Write out long-wave radiation flux.
!  Sout(idSrad)  Write out short-wave radiation flux.
!  Sout(idEmPf)  Write out E-P flux.
!  Sout(idevap)  Write out evaporation rate.
!  Sout(idrain)  Write out precipitation rate.
!
!  Sout(idDano)  Write out density anomaly.
!  Sout(idVvis)  Write out vertical viscosity coefficient.
!  Sout(idTdif)  Write out vertical diffusion coefficient of temperature.
!  Sout(idSdif)  Write out vertical diffusion coefficient of salinity.
!  Sout(idHsbl)  Write out depth of oceanic surface boundary layer.
!  Sout(idHbbl)  Write out depth of oceanic bottom boundary layer.
!  Sout(idMtke)  Write out turbulent kinetic energy.
!  Sout(idMtls)  Write out turbulent kinetic energy times length scale.
!
!  Sout(idBott)  Write out exposed sediment layer properties, 1:MBOTP.
!
!------------------------------------------------------------------------------
! Station positions KEYWORDS.
!------------------------------------------------------------------------------
!
!  NSTATION      Number of stations to process in each nested grid. Ngrids
!                  values are expected.  These values are essential because
!                  the station arrays are dynamically allocated using these
!                  values.
!
!  POS           Station locations for all grids in any desired order.  The
!                  horizontal location for a particular station can be
!                  specified in terms of fractional (I,J) grid pairs (FLAG=0)
!                  or (longitude,latitude) grid pairs (FLAG=1). Here, FLAG is
!                  a special switch and may be used for multiple purposes.
!                  The GRID column indicates nested grid number to process.
!                  This value must be one in non-nested applications.  The
!                  COMMENT section is ignored during reading and may be used
!                  to help documentation.  This locations are used to
!                  interpolate model data before writting to output STATIONS
!                  file.  The stations locations are read using the following
!                  statement:
!
!                  is(1:Ngrids)=0
!                  DO WHILE (.true.)
!                    read (unit,*,ERR=10) igrid, flag, Xpos, Ypos
!                    ng=MAX(1,ABS(ng))
!                    is(ng)=ic(ng)+1
!                    SCALARS(ng)%Sflag(is(ng))=flag
!                    SCALARS(ng)%SposX(is(ng))=Xpos
!                    SCALARS(ng)%SposY(is(ng))=Ypos
!                  END DO
!
!                Since there is no decoding during the reading of the stations
!                locations, the POS keyword must be the last one to process.
!                That is, it should be at the end of the input specification.
!
!
